@<TRIPOS>MOLECULE
6306
 22 21 0 0 0
SMALL
GASTEIGER

@<TRIPOS>ATOM
      1 O           2.5369   -0.0950    0.0000 O.3     1  ILE1       -0.4795
      2 OXT         3.4030    1.4050    0.0000 O.2     1  ILE1       -0.2492
      3 N           4.2690   -1.0950    0.0000 N.3     1  ILE1       -0.3182
      4 CB          5.1350    0.4050    0.0000 C.3     1  ILE1       -0.0185
      5 CA          4.2690   -0.0950    0.0000 C.3     1  ILE1        0.1058
      6 CG1         6.0010   -0.0950    0.0000 C.3     1  ILE1       -0.0514
      7 CG2         5.1350    1.4050    0.0000 C.3     1  ILE1       -0.0605
      8 CD1         6.8671    0.4050    0.0000 C.3     1  ILE1       -0.0650
      9 C           3.4030    0.4050    0.0000 C.2     1  ILE1        0.3220
     10 HB          5.6720    0.7150    0.0000 H       1  ILE1        0.0318
     11 HA          4.8059   -0.4050    0.0000 H       1  ILE1        0.0577
     12 HG11        5.6025   -0.5699    0.0000 H       1  ILE1        0.0266
     13 HG12        6.3996   -0.5699    0.0000 H       1  ILE1        0.0266
     14 HG21        5.7550    1.4050    0.0000 H       1  ILE1        0.0233
     15 HG22        5.1350    2.0250    0.0000 H       1  ILE1        0.0233
     16 HG23        4.5150    1.4050    0.0000 H       1  ILE1        0.0233
     17 HD11        7.1771   -0.1319    0.0000 H       1  ILE1        0.0230
     18 HD12        7.4040    0.7150    0.0000 H       1  ILE1        0.0230
     19 HD13        6.5571    0.9419    0.0000 H       1  ILE1        0.0230
     20 H1          3.7320   -1.4050    0.0000 H       1  ILE1        0.1190
     21 H2          4.8059   -1.4050    0.0000 H       1  ILE1        0.1190
     22 H           2.0000    0.2150    0.0000 H       1  ILE1        0.2951
@<TRIPOS>BOND
     1     1     9    1
     2     1    22    1
     3     2     9    2
     4     5     3    1
     5     3    20    1
     6     3    21    1
     7     4     5    1
     8     4     6    1
     9     4     7    1
    10     4    10    1
    11     5     9    1
    12     5    11    1
    13     6     8    1
    14     6    12    1
    15     6    13    1
    16     7    14    1
    17     7    15    1
    18     7    16    1
    19     8    17    1
    20     8    18    1
    21     8    19    1
