@<TRIPOS>MOLECULE
6057
 24 24 0 0 0
SMALL
GASTEIGER

@<TRIPOS>ATOM
      1 O           4.5981    2.8450    0.0000 O.3     1  TYR1       -0.4795
      2 OH          2.8660   -3.1550    0.0000 O.3     1  TYR1       -0.5068
      3 OXT         2.8660    2.8450    0.0000 O.2     1  TYR1       -0.2492
      4 N           4.5981    0.8450    0.0000 N.3     1  TYR1       -0.3181
      5 CB          2.8660    0.8450    0.0000 C.3     1  TYR1       -0.0020
      6 CA          3.7320    1.3450    0.0000 C.3     1  TYR1        0.1072
      7 CG          2.8660   -0.1550    0.0000 C.ar    1  TYR1       -0.0451
      8 CD1         2.0000   -0.6550    0.0000 C.ar    1  TYR1       -0.0551
      9 CD2         3.7320   -0.6550    0.0000 C.ar    1  TYR1       -0.0551
     10 C           3.7320    2.3450    0.0000 C.2     1  TYR1        0.3220
     11 CE1         2.0000   -1.6550    0.0000 C.ar    1  TYR1       -0.0199
     12 CE2         3.7320   -1.6550    0.0000 C.ar    1  TYR1       -0.0199
     13 CZ          2.8660   -2.1550    0.0000 C.ar    1  TYR1        0.1169
     14 HB1         2.6540    1.4276    0.0000 H       1  TYR1        0.0334
     15 HB2         2.2554    0.7373    0.0000 H       1  TYR1        0.0334
     16 HA          3.7320    0.7250    0.0000 H       1  TYR1        0.0577
     17 HD1         1.4631   -0.3450    0.0000 H       1  TYR1        0.0621
     18 HD2         4.2690   -0.3450    0.0000 H       1  TYR1        0.0621
     19 H1          5.1350    1.1550    0.0000 H       1  TYR1        0.1190
     20 H2          4.5981    0.2250    0.0000 H       1  TYR1        0.1190
     21 HE1         1.4631   -1.9650    0.0000 H       1  TYR1        0.0654
     22 HE2         4.2690   -1.9650    0.0000 H       1  TYR1        0.0654
     23 H           4.5981    3.4650    0.0000 H       1  TYR1        0.2951
     24 HH          2.3291   -3.4650    0.0000 H       1  TYR1        0.2921
@<TRIPOS>BOND
     1     1    10    1
     2     1    23    1
     3     2    13    1
     4     2    24    1
     5     3    10    2
     6     6     4    1
     7     4    19    1
     8     4    20    1
     9     5     6    1
    10     5     7    1
    11     5    14    1
    12     5    15    1
    13     6    10    1
    14     6    16    1
    15     7     8   ar
    16     7     9   ar
    17     8    11   ar
    18     8    17    1
    19     9    12   ar
    20     9    18    1
    21    11    13   ar
    22    11    21    1
    23    12    13   ar
    24    12    22    1
